/*--------------------------------*- C++ -*----------------------------------*\
| =========                 |                                                 |
| \\      /  F ield         | OpenFOAM: The Open Source CFD Toolbox           |
|  \\    /   O peration     | Version:  2306                                  |
|   \\  /    A nd           | Website:  www.openfoam.com                      |
|    \\/     M anipulation  |                                                 |
\*---------------------------------------------------------------------------*/
FoamFile
{
    version     2.0;
    format      ascii;
    arch        "LSB;label=32;scalar=64";
    class       polyBoundaryMesh;
    location    "constant/polyMesh";
    object      boundary;
}
// * * * * * * * * * * * * * * * * * * * * * * * * * * * * * * * * * * * * * //

6
(
    axis
    {
        type            zeroGradient;
        inGroups        1(zeroGradient);
        nFaces          0;
        startFace       718800;
        faces           ( ( 0 3 3 0 ) );
    }
    bottom
    {
        type            wall;
        inGroups        1(wall);
        nFaces          600;
        startFace       718800;
    }
    sidewall
    {
        type            wall;
        inGroups        1(wall);
        nFaces          600;
        startFace       719400;
    }
    atmosphere
    {
        type            patch;
        nFaces          600;
        startFace       720000;
    }
    front
    {
        type            wedge;
        inGroups        1(wedge);
        nFaces          360000;
        startFace       720600;
    }
    back
    {
        type            wedge;
        inGroups        1(wedge);
        nFaces          360000;
        startFace       1080600;
    }
)

// ************************************************************************* //
